omf/data/Model/public/Demo cvrStatic ABEC Columbia/main.2014-07-30-11-30-25.glm
clock {
	timezone PST+8PDT;
	starttime '2013-01-01 00:00:00';
	stoptime '2013-01-01 00:00:00';
};

#set minimum_timestep=60;
#set profiler=1;
#set relax_naming_rules=1;
module generators;
module tape;
module residential {
	implicit_enduses NONE;
};

module powerflow {
	solver_method NR;
	NR_iteration_limit 50;
};

object node {
	phases ABCN;
	name COLOMA SUB;
	bustype SWING;
	nominal_voltage 7200.0;
};

object regulator_configuration {
	Control MANUAL;
	raise_taps 10;
	name Coloma Bus Regs-CONFIG;
	PT_phase ABC;
	tap_pos_B 3;
	connect_type 1;
	CT_phase ABC;
	regulation 0.10;
	tap_pos_A 3;
	control_level INDIVIDUAL;
	tap_pos_C 3;
	Type A;
	lower_taps 10;
};

object regulator {
	phases ACB;
	from COLOMA SUB;
	name Coloma Bus Regs;
	to nodeCOLOMA4Coloma Bus Regs;
	configuration Coloma Bus Regs-CONFIG;
};

object fuse {
	phases ACB;
	from nodeCOLOMA4Coloma Bus Regs;
	name COLOMA4;
	current_limit 9999.0 A;
	to node948739COLOMA4;
};

object underground_line {
	phases ACB;
	from node948739COLOMA4;
	name 948739;
	to node824694948739;
	length 70;
	configuration 923991-LINECONFIG;
};

object underground_line {
	phases ACB;
	from node824694948739;
	name 824694;
	to nodeRCMA4-R0001x1824694;
	length 70;
	configuration 923991-LINECONFIG;
};

object fuse {
	phases ACB;
	from nodeRCMA4-R0001x1824694;
	name RCMA4-R0001x1;
	current_limit 9999.0 A;
	to node984636RCMA4-R0001x1;
};

object underground_line {
	phases ACB;
	from node984636RCMA4-R0001x1;
	name 984636;
	to node984637984636;
	length 133;
	configuration 923991-LINECONFIG;
};

object underground_line {
	phases ACB;
	from node984637984636;
	name 984637;
	to node984634984637;
	length 10;
	configuration 923991-LINECONFIG;
};

object underground_line {
	phases ACB;
	from node984634984637;
	name 984634;
	to node12049x1-B984634;
	length 10;
	configuration 923991-LINECONFIG;
};

object underground_line {
	phases ACB;
	from node984634984637;
	name 984638;
	to node984639984638;
	length 10;
	configuration 923991-LINECONFIG;
};

object underground_line {
	phases ACB;
	from node984639984638;
	name 984639;
	to node824697984639;
	length 781;
	configuration 923991-LINECONFIG;
};

object underground_line {
	phases B;
	from node824697984639;
	name 824697;
	to nodeT21526824697;
	length 26;
	configuration 825117-LINECONFIG;
};

object underground_line {
	phases ACB;
	from node824697984639;
	name 824700;
	to node824701824700;
	length 257;
	configuration 923991-LINECONFIG;
};

object overhead_line {
	phases ACBN;
	from node824701824700;
	name 824701;
	to node824702824701;
	length 129;
	configuration 824894-LINECONFIG;
};

object overhead_line {
	phases ACBN;
	from node824702824701;
	name 824702;
	to node824704824702;
	length 30;
	configuration 824894-LINECONFIG;
};

object overhead_line {
	phases ACBN;
	from node824704824702;
	name 824704;
	to node824705824704;
	length 752;
	configuration 824894-LINECONFIG;
};

object overhead_line {
	phases ACB;
	from node824705824704;
	name 824705;
	to node1808-19-005824705;
	length 140;
	configuration 824830-LINECONFIG;
};

object overhead_line {
	phases ACBN;
	from node824705824704;
	name 824707;
	to node979614824707;
	length 1574;
	configuration 824894-LINECONFIG;
};

object underground_line {
	phases ACB;
	from node979614824707;
	name 979614;
	to node979615979614;
	length 20;
	configuration 923991-LINECONFIG;
};

object underground_line {
	phases ACB;
	from node979615979614;
	name 979615;
	to nodeT28934979615;
	length 960;
	configuration 825456-LINECONFIG;
};

object underground_line {
	phases ACB;
	from node979615979614;
	name 979617;
	to nodeT28933979617;
	length 140;
	configuration 825456-LINECONFIG;
};

object overhead_line {
	phases ACB;
	from node979614824707;
	name 979839;
	to node824712979839;
	length 50;
	configuration 824894-LINECONFIG;
};

object underground_line {
	phases ACB;
	from node824712979839;
	name 824712;
	to node824713824712;
	length 1036;
	configuration 825456-LINECONFIG;
};

object underground_line {
	phases B;
	from node824713824712;
	name 824713;
	to node1808-19-008824713;
	length 392;
	configuration 825117-LINECONFIG;
};

object underground_line {
	phases C;
	from node824713824712;
	name 824715;
	to node824716824715;
	length 830;
	configuration 925975-LINECONFIG;
};

object underground_line {
	phases C;
	from node824716824715;
	name 824716;
	to nodeR7229x1824716;
	length 20;
	configuration 925975-LINECONFIG;
};

object fuse {
	phases C;
	from nodeR7229x1824716;
	name R7229x1;
	current_limit 9999.0 A;
	to node920601R7229x1;
};

object overhead_line {
	phases CN;
	from node920601R7229x1;
	name 920601;
	to node824717920601;
	length 778;
	configuration 824825-LINECONFIG;
};

object overhead_line {
	phases CN;
	from node824717920601;
	name 824717;
	to node824718824717;
	length 1237;
	configuration 824825-LINECONFIG;
};

object overhead_line {
	phases CN;
	from node824718824717;
	name 824718;
	to node824720824718;
	length 433;
	configuration 824825-LINECONFIG;
};

object overhead_line {
	phases CN;
	from node824720824718;
	name 824720;
	to node824721824720;
	length 1357;
	configuration 824825-LINECONFIG;
};

object overhead_line {
	phases CN;
	from node824721824720;
	name 824721;
	to node824722824721;
	length 1076;
	configuration 824825-LINECONFIG;
};

object overhead_line {
	phases CN;
	from node824722824721;
	name 824722;
	to node824723824722;
	length 1073;
	configuration 824825-LINECONFIG;
};

object overhead_line {
	phases CN;
	from node824723824722;
	name 824723;
	to node906386824723;
	length 714;
	configuration 824825-LINECONFIG;
};

object overhead_line {
	phases CN;
	from node906386824723;
	name 906386;
	to node824726906386;
	length 335;
	configuration 824825-LINECONFIG;
};

object overhead_line {
	phases CN;
	from node824726906386;
	name 824726;
	to node824727824726;
	length 376;
	configuration 824825-LINECONFIG;
};

object overhead_line {
	phases CN;
	from node824727824726;
	name 824727;
	to node824728824727;
	length 555;
	configuration 824825-LINECONFIG;
};

object overhead_line {
	phases CN;
	from node824728824727;
	name 824728;
	to node824729824728;
	length 588;
	configuration 824825-LINECONFIG;
};

object overhead_line {
	phases CN;
	from node824729824728;
	name 824729;
	to node824730824729;
	length 142;
	configuration 824825-LINECONFIG;
};

object overhead_line {
	phases CN;
	from node824730824729;
	name 824730;
	to node824731824730;
	length 311;
	configuration 824825-LINECONFIG;
};

object overhead_line {
	phases CN;
	from node824731824730;
	name 824731;
	to node824732824731;
	length 281;
	configuration 824825-LINECONFIG;
};

object overhead_line {
	phases CN;
	from node824732824731;
	name 824732;
	to node824733824732;
	length 282;
	configuration 824825-LINECONFIG;
};

object overhead_line {
	phases CN;
	from node824733824732;
	name 824733;
	to node824734824733;
	length 592;
	configuration 824825-LINECONFIG;
};

object overhead_line {
	phases C;
	from node824734824733;
	name 824734;
	to node824738824734;
	length 242;
	configuration 824825-LINECONFIG;
};

object underground_line {
	phases C;
	from node824738824734;
	name 824738;
	to nodeF7974x1824738;
	length 50;
	configuration 925975-LINECONFIG;
};

object fuse {
	phases C;
	from nodeF7974x1824738;
	name F7974x1;
	current_limit 9999.0 A;
	to node824739F7974x1;
};

object underground_line {
	phases C;
	from node824739F7974x1;
	name 824739;
	to node824740824739;
	length 1217;
	configuration 925975-LINECONFIG;
};

object underground_line {
	phases C;
	from node824740824739;
	name 824740;
	to node824741824740;
	length 816;
	configuration 925975-LINECONFIG;
};

object underground_line {
	phases C;
	from node824741824740;
	name 824741;
	to node824742824741;
	length 380;
	configuration 925975-LINECONFIG;
};

object underground_line {
	phases C;
	from node824742824741;
	name 824742;
	to nodeFCMA4-F008x1824742;
	length 178;
	configuration 925975-LINECONFIG;
};

object fuse {
	phases C;
	from nodeFCMA4-F008x1824742;
	name FCMA4-F008x1;
	current_limit 9999.0 A;
	to node824743FCMA4-F008x1;
};

object underground_line {
	phases C;
	from node824743FCMA4-F008x1;
	name 824743;
	to node1808-0151824743;
	length 699;
	configuration 925975-LINECONFIG;
};

object underground_line {
	phases C;
	from node824742824741;
	name 824745;
	to node1808-0164824745;
	length 305;
	configuration 925975-LINECONFIG;
};

object underground_line {
	phases C;
	from node824732824731;
	name 905282;
	to nodeF5088x1905282;
	length 22;
	configuration 925975-LINECONFIG;
};

object fuse {
	phases C;
	from nodeF5088x1905282;
	name F5088x1;
	current_limit 9999.0 A;
	to node905284F5088x1;
};

object underground_line {
	phases C;
	from node905284F5088x1;
	name 905284;
	to nodeT5087905284;
	length 432;
	configuration 925975-LINECONFIG;
};

object overhead_line {
	phases CN;
	from node824731824730;
	name 824747;
	to node824748824747;
	length 409;
	configuration 824825-LINECONFIG;
};

object overhead_line {
	phases CN;
	from node824748824747;
	name 824748;
	to node824750824748;
	length 112;
	configuration 824825-LINECONFIG;
};

object overhead_line {
	phases CN;
	from node824750824748;
	name 824750;
	to node824751824750;
	length 100;
	configuration 824825-LINECONFIG;
};

object overhead_line {
	phases CN;
	from node824751824750;
	name 824751;
	to node824752824751;
	length 175;
	configuration 824825-LINECONFIG;
};

object overhead_line {
	phases CN;
	from node824752824751;
	name 824752;
	to node824755824752;
	length 300;
	configuration 824825-LINECONFIG;
};

object overhead_line {
	phases CN;
	from node824755824752;
	name 824755;
	to node824759824755;
	length 309;
	configuration 824825-LINECONFIG;
};

object overhead_line {
	phases CN;
	from node824759824755;
	name 824759;
	to node900841824759;
	length 322;
	configuration 949086-LINECONFIG;
};

object overhead_line {
	phases CN;
	from node900841824759;
	name 900841;
	to node824760900841;
	length 190;
	configuration 949086-LINECONFIG;
};

object overhead_line {
	phases CN;
	from node824760900841;
	name 824760;
	to node900842824760;
	length 315;
	configuration 949086-LINECONFIG;
};

object overhead_line {
	phases CN;
	from node900842824760;
	name 900842;
	to node949086900842;
	length 335;
	configuration 949086-LINECONFIG;
};

object line_configuration {
	conductor_N 949086_conductor_N;
	spacing 825694-LINESPACING;
	name 949086-LINECONFIG;
	conductor_C 949086_conductor_N;
};

object overhead_line_conductor {
	diameter 0.721;
	resistance 1.65;
	name 949086_conductor_N;
	geometric_mean_radius 0.00504;
};

object overhead_line {
	phases CN;
	from node949086900842;
	name 949086;
	to node824761949086;
	length 315;
	configuration 949086-LINECONFIG;
};

object overhead_line {
	phases CN;
	from node824761949086;
	name 824761;
	to node914176824761;
	length 325;
	configuration 914176-LINECONFIG;
};

object line_configuration {
	conductor_N 824894_conductor_N;
	spacing 825694-LINESPACING;
	name 914176-LINECONFIG;
	conductor_C 824894_conductor_C;
};

object overhead_line {
	phases C;
	from node914176824761;
	name 914176;
	to node1808-29-023914176;
	length 300;
	configuration 914176-LINECONFIG;
};

object underground_line {
	phases C;
	from node824761949086;
	name 949050;
	to node12900x1-Bx1949050;
	length 659;
	configuration 925975-LINECONFIG;
};

object underground_line {
	phases C;
	from node824760900841;
	name 824798;
	to nodeFCMA4-F074x1824798;
	length 66;
	configuration 925975-LINECONFIG;
};

object fuse {
	phases C;
	from nodeFCMA4-F074x1824798;
	name FCMA4-F074x1;
	current_limit 9999.0 A;
	to node824799FCMA4-F074x1;
};

object underground_line {
	phases C;
	from node824799FCMA4-F074x1;
	name 824799;
	to node824800824799;
	length 58;
	configuration 925975-LINECONFIG;
};

object underground_line {
	phases C;
	from node824800824799;
	name 824800;
	to node824802824800;
	length 587;
	configuration 925975-LINECONFIG;
};

object underground_line {
	phases C;
	from node824802824800;
	name 824802;
	to node1808-0088824802;
	length 194;
	configuration 925975-LINECONFIG;
};

object overhead_line {
	phases C;
	from node824759824755;
	name 824805;
	to node1808-29-032824805;
	length 248;
	configuration 824825-LINECONFIG;
};

object underground_line {
	phases C;
	from node824759824755;
	name 824809;
	to nodeFCMA4-F056x1824809;
	length 49;
	configuration 925975-LINECONFIG;
};

object fuse {
	phases C;
	from nodeFCMA4-F056x1824809;
	name FCMA4-F056x1;
	current_limit 9999.0 A;
	to node824810FCMA4-F056x1;
};

object underground_line {
	phases C;
	from node824810FCMA4-F056x1;
	name 824810;
	to node1808-0144824810;
	length 360;
	configuration 925975-LINECONFIG;
};

object underground_line {
	phases C;
	from node824727824726;
	name 824814;
	to nodeFCMA4-F107x1824814;
	length 78;
	configuration 925975-LINECONFIG;
};

object fuse {
	phases C;
	from nodeFCMA4-F107x1824814;
	name FCMA4-F107x1;
	current_limit 9999.0 A;
	to node824815FCMA4-F107x1;
};

object underground_line {
	phases C;
	from node824815FCMA4-F107x1;
	name 824815;
	to node824816824815;
	length 131;
	configuration 925975-LINECONFIG;
};

object underground_line {
	phases C;
	from node824816824815;
	name 824816;
	to node1808-29-034824816;
	length 403;
	configuration 925975-LINECONFIG;
};

object underground_line {
	phases C;
	from node824816824815;
	name 824818;
	to node824820824818;
	length 198;
	configuration 925975-LINECONFIG;
};

object underground_line {
	phases C;
	from node824820824818;
	name 824820;
	to node1808-0150824820;
	length 534;
	configuration 925975-LINECONFIG;
};

object underground_line {
	phases C;
	from node906386824723;
	name 911237;
	to node911238911237;
	length 45;
	configuration 925975-LINECONFIG;
};

object underground_line {
	phases C;
	from node911238911237;
	name 911238;
	to nodeT4114911238;
	length 280;
	configuration 925975-LINECONFIG;
};

object underground_line {
	phases C;
	from node824722824721;
	name 824822;
	to nodeF18632x1824822;
	length 70;
	configuration 825688-LINECONFIG;
};

object fuse {
	phases C;
	from nodeF18632x1824822;
	name F18632x1;
	current_limit 9999.0 A;
	to node824823F18632x1;
};

object underground_line {
	phases C;
	from node824823F18632x1;
	name 824823;
	to node900921824823;
	length 17;
	configuration 825688-LINECONFIG;
};

object underground_line {
	phases C;
	from node900921824823;
	name 900921;
	to nodeT18630900921;
	length 2486;
	configuration 825688-LINECONFIG;
};

object overhead_line {
	phases CN;
	from node824722824721;
	name 910307;
	to node910308910307;
	length 250;
	configuration 825694-LINECONFIG;
};

object overhead_line {
	phases C;
	from node910308910307;
	name 910308;
	to node1808-20-011910308;
	length 250;
	configuration 825694-LINECONFIG;
};

object line_configuration {
	conductor_N 913826_conductor_N;
	spacing 825694-LINESPACING;
	name 824825-LINECONFIG;
	conductor_C 913826_conductor_N;
};

object overhead_line {
	phases C;
	from node824717920601;
	name 824825;
	to node1808-20-008824825;
	length 338;
	configuration 824825-LINECONFIG;
};

object underground_line {
	phases ACB;
	from node824713824712;
	name 824827;
	to node974368824827;
	length 1032;
	configuration 825456-LINECONFIG;
};

object underground_line {
	phases ACB;
	from node974368824827;
	name 974368;
	to nodeT29595974368;
	length 678;
	configuration 825456-LINECONFIG;
};

object underground_line {
	phases ACB;
	from node974368824827;
	name 974371;
	to nodeT29596974371;
	length 668;
	configuration 825456-LINECONFIG;
};

object line_configuration {
	name 824830-LINECONFIG;
	spacing 824894-LINESPACING;
	conductor_N 825694_conductor_N;
	conductor_A 825694_conductor_N;
	conductor_C 825694_conductor_N;
	conductor_B 825694_conductor_N;
};

object overhead_line {
	phases ACB;
	from node824701824700;
	name 824830;
	to node1808-19-009824830;
	length 204;
	configuration 824830-LINECONFIG;
};

object underground_line {
	phases ACB;
	from node824697984639;
	name 824833;
	to node824834824833;
	length 281;
	configuration 923991-LINECONFIG;
};

object underground_line {
	phases ACB;
	from node824834824833;
	name 824834;
	to node533x1-Bx1824834;
	length 10;
	configuration 824901-LINECONFIG;
};

object switch {
	status CLOSED;
	phases ACB;
	from node533x1-Bx1824834;
	name 533x1-Bx1;
	to node533x1-Ax1533x1-Bx1;
};

object switch {
	status CLOSED;
	phases ACB;
	from node533x1-Ax1533x1-Bx1;
	name 533x1-Ax1;
	to node824835533x1-Ax1;
};

object overhead_line {
	phases ACBN;
	from node824835533x1-Ax1;
	name 824835;
	to node824836824835;
	length 75;
	configuration 824894-LINECONFIG;
};

object overhead_line {
	phases ACBN;
	from node824836824835;
	name 824836;
	to node824837824836;
	length 254;
	configuration 824894-LINECONFIG;
};

object overhead_line {
	phases ACBN;
	from node824837824836;
	name 824837;
	to node824838824837;
	length 3360;
	configuration 824894-LINECONFIG;
};

object underground_line {
	phases ACB;
	from node824838824837;
	name 824838;
	to nodeFCMA4-F016x1824838;
	length 117;
	configuration 825456-LINECONFIG;
};

object fuse {
	phases ACB;
	from nodeFCMA4-F016x1824838;
	name FCMA4-F016x1;
	current_limit 9999.0 A;
	to node824839FCMA4-F016x1;
};

object underground_line {
	phases ACB;
	from node824839FCMA4-F016x1;
	name 824839;
	to node1808-19-010824839;
	length 2136;
	configuration 825456-LINECONFIG;
};

object overhead_line {
	phases ACBN;
	from node824838824837;
	name 824842;
	to node824843824842;
	length 380;
	configuration 824894-LINECONFIG;
};

object overhead_line {
	phases ACBN;
	from node824843824842;
	name 824843;
	to node824844824843;
	length 689;
	configuration 824894-LINECONFIG;
};

object overhead_line {
	phases ACBN;
	from node824844824843;
	name 824844;
	to node824847824844;
	length 3236;
	configuration 824894-LINECONFIG;
};

object overhead_line {
	phases ACBN;
	from node824847824844;
	name 824847;
	to node824848824847;
	length 1014;
	configuration 824894-LINECONFIG;
};

object underground_line {
	phases C;
	from node824848824847;
	name 824848;
	to nodeR7231x1824848;
	length 118;
	configuration 925975-LINECONFIG;
};

object fuse {
	phases C;
	from nodeR7231x1824848;
	name R7231x1;
	current_limit 9999.0 A;
	to node824849R7231x1;
};

object underground_line {
	phases C;
	from node824849R7231x1;
	name 824849;
	to node824850824849;
	length 2623;
	configuration 925975-LINECONFIG;
};

object underground_line {
	phases C;
	from node824850824849;
	name 824850;
	to node1807-0244824850;
	length 1877;
	configuration 925975-LINECONFIG;
};

object overhead_line {
	phases CN;
	from node824850824849;
	name 824852;
	to node824853824852;
	length 301;
	configuration 825694-LINECONFIG;
};

object overhead_line {
	phases CN;
	from node824853824852;
	name 824853;
	to node824855824853;
	length 1294;
	configuration 825694-LINECONFIG;
};

object overhead_line {
	phases CN;
	from node824855824853;
	name 824855;
	to node824857824855;
	length 339;
	configuration 825694-LINECONFIG;
};

object overhead_line {
	phases CN;
	from node824857824855;
	name 824857;
	to node824858824857;
	length 317;
	configuration 825694-LINECONFIG;
};

object overhead_line {
	phases CN;
	from node824858824857;
	name 824858;
	to node824859824858;
	length 303;
	configuration 825694-LINECONFIG;
};

object overhead_line {
	phases CN;
	from node824859824858;
	name 824859;
	to node980396824859;
	length 930;
	configuration 825694-LINECONFIG;
};

object overhead_line {
	phases CN;
	from node980396824859;
	name 980396;
	to node980393980396;
	length 300;
	configuration 825694-LINECONFIG;
};

object overhead_line {
	phases CN;
	from node980393980396;
	name 980393;
	to node824860980393;
	length 143;
	configuration 825694-LINECONFIG;
};

object overhead_line {
	phases CN;
	from node824860980393;
	name 824860;
	to node923236824860;
	length 143;
	configuration 825694-LINECONFIG;
};

object overhead_line {
	phases CN;
	from node923236824860;
	name 923236;
	to node923237923236;
	length 264;
	configuration 825694-LINECONFIG;
};

object overhead_line {
	phases CN;
	from node923237923236;
	name 923237;
	to node923238923237;
	length 257;
	configuration 825694-LINECONFIG;
};

object overhead_line {
	phases CN;
	from node923238923237;
	name 923238;
	to node824862923238;
	length 293;
	configuration 825694-LINECONFIG;
};

object overhead_line {
	phases CN;
	from node824862923238;
	name 824862;
	to node923239824862;
	length 321;
	configuration 825694-LINECONFIG;
};

object overhead_line {
	phases CN;
	from node923239824862;
	name 923239;
	to node923240923239;
	length 252;
	configuration 825694-LINECONFIG;
};

object overhead_line {
	phases CN;
	from node923240923239;
	name 923240;
	to node923241923240;
	length 249;
	configuration 825694-LINECONFIG;
};

object overhead_line {
	phases CN;
	from node923241923240;
	name 923241;
	to node923242923241;
	length 258;
	configuration 825694-LINECONFIG;
};

object overhead_line {
	phases C;
	from node923242923241;
	name 923242;
	to nodeF7815x1923242;
	length 270;
	configuration 825694-LINECONFIG;
};

object fuse {
	phases C;
	from nodeF7815x1923242;
	name F7815x1;
	current_limit 9999.0 A;
	to node922977F7815x1;
};

object underground_line {
	phases C;
	from node922977F7815x1;
	name 922977;
	to node922975922977;
	length 56;
	configuration 925975-LINECONFIG;
};

object underground_line {
	phases C;
	from node922975922977;
	name 922975;
	to node922976922975;
	length 150;
	configuration 925975-LINECONFIG;
};

object underground_line {
	phases C;
	from node922976922975;
	name 922976;
	to nodeT12925922976;
	length 1320;
	configuration 925975-LINECONFIG;
};

object underground_line {
	phases C;
	from node922976922975;
	name 922978;
	to node922979922978;
	length 1300;
	configuration 925975-LINECONFIG;
};

object underground_line {
	phases C;
	from node922979922978;
	name 922979;
	to node922980922979;
	length 30;
	configuration 925975-LINECONFIG;
};

object underground_line {
	phases C;
	from node922980922979;
	name 922980;
	to node1807-0304922980;
	length 597;
	configuration 925975-LINECONFIG;
};

object underground_line {
	phases C;
	from node922979922978;
	name 922981;
	to node824871922981;
	length 25;
	configuration 925975-LINECONFIG;
};

object underground_line {
	phases C;
	from node824871922981;
	name 824871;
	to node922983824871;
	length 372;
	configuration 825688-LINECONFIG;
};

object underground_line {
	phases C;
	from node922983824871;
	name 922983;
	to node1807-0292922983;
	length 1250;
	configuration 825688-LINECONFIG;
};

object underground_line {
	phases C;
	from node980393980396;
	name 980395;
	to node980394980395;
	length 1162;
	configuration 925975-LINECONFIG;
};

object overhead_line {
	phases CN;
	from node980394980395;
	name 980394;
	to node824878980394;
	length 246;
	configuration 825694-LINECONFIG;
};

object overhead_line {
	phases C;
	from node824878980394;
	name 824878;
	to node1807-36-005824878;
	length 101;
	configuration 825694-LINECONFIG;
};

object underground_line {
	phases C;
	from node824878980394;
	name 824880;
	to nodeF5402x1824880;
	length 15;
	configuration 925975-LINECONFIG;
};

object fuse {
	phases C;
	from nodeF5402x1824880;
	name F5402x1;
	current_limit 9999.0 A;
	to node824881F5402x1;
};

object underground_line {
	phases C;
	from node824881F5402x1;
	name 824881;
	to node1807-0299824881;
	length 553;
	configuration 925975-LINECONFIG;
};

object overhead_line {
	phases CN;
	from node824850824849;
	name 824883;
	to node824884824883;
	length 198;
	configuration 825694-LINECONFIG;
};

object overhead_line {
	phases CN;
	from node824884824883;
	name 824884;
	to node824885824884;
	length 1300;
	configuration 825694-LINECONFIG;
};

object overhead_line {
	phases C;
	from node824885824884;
	name 824885;
	to node1807-25-007824885;
	length 176;
	configuration 825694-LINECONFIG;
};

object underground_line {
	phases C;
	from node824885824884;
	name 824887;
	to nodeF18666x1824887;
	length 38;
	configuration 925975-LINECONFIG;
};

object fuse {
	phases C;
	from nodeF18666x1824887;
	name F18666x1;
	current_limit 9999.0 A;
	to node824888F18666x1;
};

object underground_line {
	phases C;
	from node824888F18666x1;
	name 824888;
	to node824889824888;
	length 1084;
	configuration 925975-LINECONFIG;
};

object underground_line {
	phases C;
	from node824889824888;
	name 824889;
	to node824890824889;
	length 1165;
	configuration 925975-LINECONFIG;
};

object underground_line {
	phases C;
	from node824890824889;
	name 824890;
	to node950220824890;
	length 384;
	configuration 925975-LINECONFIG;
};

object underground_line {
	phases C;
	from node950220824890;
	name 950220;
	to nodeT11989950220;
	length 770;
	configuration 925975-LINECONFIG;
};

object underground_line {
	phases C;
	from node824848824847;
	name 825629;
	to nodeR7230x1825629;
	length 47;
	configuration 925975-LINECONFIG;
};

object fuse {
	phases C;
	from nodeR7230x1825629;
	name R7230x1;
	current_limit 9999.0 A;
	to node972841R7230x1;
};

object underground_line {
	phases C;
	from node972841R7230x1;
	name 972841;
	to node825630972841;
	length 1131;
	configuration 925975-LINECONFIG;
};

object underground_line {
	phases C;
	from node825630972841;
	name 825630;
	to node825631825630;
	length 1977;
	configuration 925975-LINECONFIG;
};

object underground_line {
	phases C;
	from node825631825630;
	name 825631;
	to node825632825631;
	length 384;
	configuration 925975-LINECONFIG;
};

object underground_line {
	phases C;
	from node825632825631;
	name 825632;
	to node825633825632;
	length 365;
	configuration 925975-LINECONFIG;
};

object underground_line {
	phases C;
	from node825633825632;
	name 825633;
	to node825634825633;
	length 336;
	configuration 925975-LINECONFIG;
};

object underground_line {
	phases C;
	from node825634825633;
	name 825634;
	to node825635825634;
	length 336;
	configuration 925975-LINECONFIG;
};

object underground_line {
	phases C;
	from node825635825634;
	name 825635;
	to node825636825635;
	length 366;
	configuration 925975-LINECONFIG;
};

object underground_line {
	phases C;
	from node825636825635;
	name 825636;
	to node825637825636;
	length 695;
	configuration 925975-LINECONFIG;
};

object underground_line {
	phases C;
	from node825637825636;
	name 825637;
	to node902721825637;
	length 39;
	configuration 925975-LINECONFIG;
};

object underground_line {
	phases C;
	from node902721825637;
	name 902721;
	to node825638902721;
	length 20;
	configuration 925975-LINECONFIG;
};

object underground_line {
	phases C;
	from node825638902721;
	name 825638;
	to node825639825638;
	length 336;
	configuration 925975-LINECONFIG;
};

object underground_line {
	phases C;
	from node825639825638;
	name 825639;
	to nodeT3285825639;
	length 160;
	configuration 925975-LINECONFIG;
};

object underground_line {
	phases C;
	from node825639825638;
	name 902741;
	to node825641902741;
	length 1299;
	configuration 925975-LINECONFIG;
};

object underground_line {
	phases C;
	from node825641902741;
	name 825641;
	to nodeT3286825641;
	length 101;
	configuration 925975-LINECONFIG;
};

object underground_line {
	phases C;
	from node825641902741;
	name 825644;
	to nodeT3287825644;
	length 542;
	configuration 925975-LINECONFIG;
};

object underground_line {
	phases C;
	from node825641902741;
	name 902742;
	to nodeT3288902742;
	length 566;
	configuration 925975-LINECONFIG;
};

object underground_line {
	phases C;
	from node825637825636;
	name 825646;
	to node825647825646;
	length 119;
	configuration 925975-LINECONFIG;
};

object underground_line {
	phases C;
	from node825647825646;
	name 825647;
	to node825648825647;
	length 607;
	configuration 925975-LINECONFIG;
};

object underground_line {
	phases C;
	from node825648825647;
	name 825648;
	to node914744825648;
	length 339;
	configuration 925975-LINECONFIG;
};

object underground_line {
	phases C;
	from node914744825648;
	name 914744;
	to node825649914744;
	length 293;
	configuration 925975-LINECONFIG;
};

object underground_line {
	phases C;
	from node825649914744;
	name 825649;
	to node825652825649;
	length 466;
	configuration 925975-LINECONFIG;
};

object overhead_line {
	phases CN;
	from node825652825649;
	name 825652;
	to node825654825652;
	length 398;
	configuration 825694-LINECONFIG;
};

object overhead_line {
	phases CN;
	from node825654825652;
	name 825654;
	to node825656825654;
	length 362;
	configuration 825694-LINECONFIG;
};

object overhead_line {
	phases CN;
	from node825656825654;
	name 825656;
	to node825657825656;
	length 213;
	configuration 825694-LINECONFIG;
};

object overhead_line {
	phases CN;
	from node825657825656;
	name 825657;
	to node825658825657;
	length 295;
	configuration 825694-LINECONFIG;
};

object overhead_line {
	phases CN;
	from node825658825657;
	name 825658;
	to node825659825658;
	length 435;
	configuration 825694-LINECONFIG;
};

object overhead_line {
	phases C;
	from node825659825658;
	name 825659;
	to node1808-32-008825659;
	length 401;
	configuration 825694-LINECONFIG;
};

object overhead_line {
	phases CN;
	from node825652825649;
	name 825662;
	to node825663825662;
	length 207;
	configuration 825692-LINECONFIG;
};

object overhead_line {
	phases CN;
	from node825663825662;
	name 825663;
	to node825664825663;
	length 52;
	configuration 825692-LINECONFIG;
};

object overhead_line {
	phases CN;
	from node825664825663;
	name 825664;
	to node825666825664;
	length 273;
	configuration 825692-LINECONFIG;
};

object overhead_line {
	phases CN;
	from node825666825664;
	name 825666;
	to node825667825666;
	length 310;
	configuration 825692-LINECONFIG;
};

object overhead_line {
	phases C;
	from node825667825666;
	name 825667;
	to node1808-32-014825667;
	length 215;
	configuration 825694-LINECONFIG;
};

object overhead_line {
	phases CN;
	from node825667825666;
	name 825675;
	to node825676825675;
	length 435;
	configuration 825692-LINECONFIG;
};

object overhead_line {
	phases CN;
	from node825676825675;
	name 825676;
	to node825678825676;
	length 409;
	configuration 825692-LINECONFIG;
};

object overhead_line {
	phases CN;
	from node825678825676;
	name 825678;
	to node910316825678;
	length 227;
	configuration 825692-LINECONFIG;
};

object overhead_line {
	phases CN;
	from node910316825678;
	name 910316;
	to node825679910316;
	length 94;
	configuration 825692-LINECONFIG;
};

object overhead_line {
	phases CN;
	from node825679910316;
	name 825679;
	to node914175825679;
	length 183;
	configuration 825692-LINECONFIG;
};

object overhead_line {
	phases CN;
	from node914175825679;
	name 914175;
	to node825681914175;
	length 243;
	configuration 825692-LINECONFIG;
};

object overhead_line {
	phases CN;
	from node825681914175;
	name 825681;
	to node825682825681;
	length 144;
	configuration 825692-LINECONFIG;
};

object overhead_line {
	phases CN;
	from node825682825681;
	name 825682;
	to node825684825682;
	length 1855;
	configuration 825692-LINECONFIG;
};

object overhead_line {
	phases CN;
	from node825684825682;
	name 825684;
	to node957975825684;
	length 577;
	configuration 825692-LINECONFIG;
};

object overhead_line {
	phases CN;
	from node957975825684;
	name 957975;
	to node825685957975;
	length 308;
	configuration 825692-LINECONFIG;
};

object overhead_line {
	phases CN;
	from node825685957975;
	name 825685;
	to node825686825685;
	length 164;
	configuration 825692-LINECONFIG;
};

object overhead_line {
	phases CN;
	from node825686825685;
	name 825686;
	to node914182825686;
	length 488;
	configuration 825692-LINECONFIG;
};

object overhead_line {
	phases CN;
	from node914182825686;
	name 914182;
	to node825687914182;
	length 189;
	configuration 825692-LINECONFIG;
};

object underground_line {
	phases C;
	from node825687914182;
	name 825687;
	to nodeFCMA4-F011x1825687;
	length 62;
	configuration 825688-LINECONFIG;
};

object fuse {
	phases C;
	from nodeFCMA4-F011x1825687;
	name FCMA4-F011x1;
	current_limit 9999.0 A;
	to node825688FCMA4-F011x1;
};

object line_configuration {
	spacing 825117-LINESPACING;
	name 825688-LINECONFIG;
	conductor_C 825688-LINECONFIGunderground_line_conductor32005;
};

object underground_line_conductor {
	conductor_gmr 0.00883;
	insulation_relative_permitivitty 2.4;
	conductor_resistance 1.76352;
	shield_resistance 0.000000;
	neutral_gmr 0.0317574;
	outer_diameter 0.903000;
	neutral_strands 6;
	neutral_resistance 14.087220;
	neutral_diameter 0.128000;
	conductor_diameter 0.097400;
	shield_gmr 0.000000;
	name 825688-LINECONFIGunderground_line_conductor32005;
};

object underground_line {
	phases C;
	from node825688FCMA4-F011x1;
	name 825688;
	to node1808-33-002825688;
	length 354;
	configuration 825688-LINECONFIG;
};

object overhead_line {
	phases CN;
	from node825687914182;
	name 825690;
	to node825692825690;
	length 312;
	configuration 825692-LINECONFIG;
};

object line_configuration {
	conductor_N 825692_conductor_N;
	spacing 825694-LINESPACING;
	name 825692-LINECONFIG;
	conductor_C 825692_conductor_N;
};

object overhead_line_conductor {
	diameter 0.721;
	resistance 2.44;
	name 825692_conductor_N;
	geometric_mean_radius 0.00479;
};

object overhead_line {
	phases CN;
	from node825692825690;
	name 825692;
	to node825693825692;
	length 345;
	configuration 825692-LINECONFIG;
};

object overhead_line {
	phases CN;
	from node825693825692;
	name 825693;
	to node825694825693;
	length 469;
	configuration 825694-LINECONFIG;
};

object line_configuration {
	conductor_N 825694_conductor_N;
	spacing 825694-LINESPACING;
	name 825694-LINECONFIG;
	conductor_C 825694_conductor_N;
};

object line_spacing {
	distance_AN 0.000000;
	name 825694-LINESPACING;
	distance_CN 4.437842;
	distance_BC 0.000000;
	distance_AB 0.000000;
	distance_AC 0.000000;
	distance_BN 0.000000;
};

object overhead_line_conductor {
	diameter 0.721;
	resistance 2.57;
	name 825694_conductor_N;
	geometric_mean_radius 0.00437;
};

object overhead_line {
	phases C;
	from node825694825693;
	name 825694;
	to node1808-33-003825694;
	length 140;
	configuration 825694-LINECONFIG;
};

object overhead_line {
	phases CN;
	from node825693825692;
	name 825696;
	to node825698825696;
	length 936;
	configuration 825692-LINECONFIG;
};

object overhead_line {
	phases CN;
	from node825698825696;
	name 825698;
	to node825701825698;
	length 323;
	configuration 825692-LINECONFIG;
};

object overhead_line {
	phases CN;
	from node825701825698;
	name 825701;
	to node825702825701;
	length 961;
	configuration 825692-LINECONFIG;
};

object underground_line {
	phases C;
	from node825702825701;
	name 825702;
	to nodeFCMA4-F047x1825702;
	length 77;
	configuration 925975-LINECONFIG;
};

object fuse {
	phases C;
	from nodeFCMA4-F047x1825702;
	name FCMA4-F047x1;
	current_limit 9999.0 A;
	to node825703FCMA4-F047x1;
};

object underground_line {
	phases C;
	from node825703FCMA4-F047x1;
	name 825703;
	to node825704825703;
	length 176;
	configuration 925975-LINECONFIG;
};

object underground_line {
	phases C;
	from node825704825703;
	name 825704;
	to node1808-27-003825704;
	length 294;
	configuration 925975-LINECONFIG;
};

object overhead_line {
	phases CN;
	from node825702825701;
	name 954735;
	to node912858954735;
	length 248;
	configuration 825692-LINECONFIG;
};

object underground_line {
	phases C;
	from node912858954735;
	name 912858;
	to nodeF7633x1912858;
	length 59;
	configuration 925975-LINECONFIG;
};

object fuse {
	phases C;
	from nodeF7633x1912858;
	name F7633x1;
	current_limit 9999.0 A;
	to node912863F7633x1;
};

object underground_line {
	phases C;
	from node912863F7633x1;
	name 912863;
	to nodeT4107912863;
	length 556;
	configuration 925975-LINECONFIG;
};

object overhead_line {
	phases CN;
	from node912858954735;
	name 954736;
	to node825707954736;
	length 200;
	configuration 825692-LINECONFIG;
};

object overhead_line {
	phases CN;
	from node825707954736;
	name 825707;
	to node825709825707;
	length 363;
	configuration 825692-LINECONFIG;
};

object overhead_line {
	phases CN;
	from node825709825707;
	name 825709;
	to node825710825709;
	length 410;
	configuration 825692-LINECONFIG;
};

object overhead_line {
	phases CN;
	from node825710825709;
	name 825710;
	to node825711825710;
	length 1505;
	configuration 825692-LINECONFIG;
};

object overhead_line {
	phases CN;
	from node825711825710;
	name 825711;
	to node825713825711;
	length 520;
	configuration 825692-LINECONFIG;
};

object overhead_line {
	phases CN;
	from node825713825711;
	name 825713;
	to node825714825713;
	length 374;
	configuration 825692-LINECONFIG;
};

object overhead_line {
	phases C;
	from node825714825713;
	name 825714;
	to nodeNO448x1-A825714;
	length 258;
	configuration 825692-LINECONFIG;
};

object underground_line {
	phases C;
	from node825711825710;
	name 825715;
	to nodeFCMA4-F099x1825715;
	length 73;
	configuration 925975-LINECONFIG;
};

object fuse {
	phases C;
	from nodeFCMA4-F099x1825715;
	name FCMA4-F099x1;
	current_limit 9999.0 A;
	to node825716FCMA4-F099x1;
};

object underground_line {
	phases C;
	from node825716FCMA4-F099x1;
	name 825716;
	to node1808-0124825716;
	length 473;
	configuration 925975-LINECONFIG;
};

object overhead_line {
	phases CN;
	from node825685957975;
	name 825720;
	to node825721825720;
	length 345;
	configuration 825694-LINECONFIG;
};

object overhead_line {
	phases CN;
	from node825721825720;
	name 825721;
	to node825723825721;
	length 398;
	configuration 825694-LINECONFIG;
};

object overhead_line {
	phases CN;
	from node825723825721;
	name 825723;
	to node825724825723;
	length 512;
	configuration 825694-LINECONFIG;
};

object overhead_line {
	phases CN;
	from node825724825723;
	name 825724;
	to node825727825724;
	length 1135;
	configuration 825694-LINECONFIG;
};

object overhead_line {
	phases CN;
	from node825727825724;
	name 825727;
	to node825728825727;
	length 424;
	configuration 825694-LINECONFIG;
};

object overhead_line {
	phases C;
	from node825728825727;
	name 825728;
	to node1808-33-009825728;
	length 252;
	configuration 825694-LINECONFIG;
};

object underground_line {
	phases C;
	from node825721825720;
	name 825732;
	to nodeF18558x1825732;
	length 101;
	configuration 925975-LINECONFIG;
};

object fuse {
	phases C;
	from nodeF18558x1825732;
	name F18558x1;
	current_limit 9999.0 A;
	to node825733F18558x1;
};

object underground_line {
	phases C;
	from node825733F18558x1;
	name 825733;
	to node1808-0136825733;
	length 200;
	configuration 925975-LINECONFIG;
};

object underground_line {
	phases C;
	from node957975825684;
	name 957977;
	to nodeF21023x1957977;
	length 15;
	configuration 925975-LINECONFIG;
};

object fuse {
	phases C;
	from nodeF21023x1957977;
	name F21023x1;
	current_limit 9999.0 A;
	to node957978F21023x1;
};

object underground_line {
	phases C;
	from node957978F21023x1;
	name 957978;
	to nodeT21024957978;
	length 105;
	configuration 925975-LINECONFIG;
};

object underground_line {
	phases C;
	from node910316825678;
	name 910318;
	to nodeF2626x1910318;
	length 13;
	configuration 925975-LINECONFIG;
};

object fuse {
	phases C;
	from nodeF2626x1910318;
	name F2626x1;
	current_limit 9999.0 A;
	to node910320F2626x1;
};

object underground_line {
	phases C;
	from node910320F2626x1;
	name 910320;
	to nodeT2627910320;
	length 508;
	configuration 925975-LINECONFIG;
};

object underground_line {
	phases C;
	from node825676825675;
	name 825735;
	to nodeFCMA4-F110x1825735;
	length 58;
	configuration 925975-LINECONFIG;
};

object fuse {
	phases C;
	from nodeFCMA4-F110x1825735;
	name FCMA4-F110x1;
	current_limit 9999.0 A;
	to node825736FCMA4-F110x1;
};

object underground_line {
	phases C;
	from node825736FCMA4-F110x1;
	name 825736;
	to node825737825736;
	length 767;
	configuration 925975-LINECONFIG;
};

object underground_line {
	phases C;
	from node825737825736;
	name 825737;
	to node825738825737;
	length 370;
	configuration 925975-LINECONFIG;
};

object underground_line {
	phases C;
	from node825738825737;
	name 825738;
	to node1808-0133825738;
	length 291;
	configuration 925975-LINECONFIG;
};

object underground_line {
	phases C;
	from node825738825737;
	name 825740;
	to nodeT29059825740;
	length 296;
	configuration 925975-LINECONFIG;
};

object underground_line {
	phases C;
	from node825737825736;
	name 825742;
	to node1808-0137825742;
	length 92;
	configuration 925975-LINECONFIG;
};

object underground_line {
	phases C;
	from node825737825736;
	name 916883;
	to node1808-0160916883;
	length 157;
	configuration 925975-LINECONFIG;
};

object underground_line {
	phases C;
	from node825663825662;
	name 825745;
	to nodeF14064x1825745;
	length 50;
	configuration 925975-LINECONFIG;
};

object fuse {
	phases C;
	from nodeF14064x1825745;
	name F14064x1;
	current_limit 9999.0 A;
	to node825746F14064x1;
};

object underground_line {
	phases C;
	from node825746F14064x1;
	name 825746;
	to node929700825746;
	length 10;
	configuration 925975-LINECONFIG;
};

object underground_line {
	phases C;
	from node929700825746;
	name 929700;
	to node1808-32-024929700;
	length 208;
	configuration 925975-LINECONFIG;
};

object underground_line {
	phases C;
	from node929700825746;
	name 929701;
	to nodeT14065929701;
	length 55;
	configuration 925975-LINECONFIG;
};

object underground_line {
	phases C;
	from node825649914744;
	name 825749;
	to node1808-0082825749;
	length 51;
	configuration 925975-LINECONFIG;
};

object underground_line {
	phases C;
	from node825649914744;
	name 899862;
	to node899863899862;
	length 721;
	configuration 925975-LINECONFIG;
};

object underground_line {
	phases C;
	from node899863899862;
	name 899863;
	to node899864899863;
	length 385;
	configuration 925975-LINECONFIG;
};

object underground_line {
	phases C;
	from node899864899863;
	name 899864;
	to node933796899864;
	length 211;
	configuration 925975-LINECONFIG;
};

object underground_line {
	phases C;
	from node933796899864;
	name 933796;
	to node899881933796;
	length 411;
	configuration 925975-LINECONFIG;
};

object underground_line {
	phases C;
	from node899881933796;
	name 899881;
	to node899882899881;
	length 485;
	configuration 925975-LINECONFIG;
};

object underground_line {
	phases C;
	from node899882899881;
	name 899882;
	to node899901899882;
	length 194;
	configuration 925975-LINECONFIG;
};

object underground_line {
	phases C;
	from node899901899882;
	name 899901;
	to node824783899901;
	length 376;
	configuration 925975-LINECONFIG;
};

object underground_line {
	phases C;
	from node824783899901;
	name 824783;
	to node1808-0103824783;
	length 20;
	configuration 925975-LINECONFIG;
};

object underground_line {
	phases C;
	from node824783899901;
	name 899902;
	to node930246899902;
	length 570;
	configuration 925975-LINECONFIG;
};

object underground_line {
	phases C;
	from node930246899902;
	name 930246;
	to node824769930246;
	length 20;
	configuration 925975-LINECONFIG;
};

object underground_line {
	phases C;
	from node824769930246;
	name 824769;
	to node910323824769;
	length 483;
	configuration 925975-LINECONFIG;
};

object underground_line {
	phases C;
	from node910323824769;
	name 910323;
	to node923318910323;
	length 300;
	configuration 925975-LINECONFIG;
};

object underground_line {
	phases C;
	from node923318910323;
	name 923318;
	to nodeT4170923318;
	length 270;
	configuration 925975-LINECONFIG;
};

object underground_line {
	phases C;
	from node824769930246;
	name 824788;
	to node930243824788;
	length 817;
	configuration 925975-LINECONFIG;
};

object underground_line {
	phases C;
	from node930243824788;
	name 930243;
	to node911160930243;
	length 780;
	configuration 925975-LINECONFIG;
};

object underground_line {
	phases C;
	from node911160930243;
	name 911160;
	to node911157911160;
	length 296;
	configuration 925975-LINECONFIG;
};

object underground_line {
	phases C;
	from node911157911160;
	name 911157;
	to nodeT4037911157;
	length 519;
	configuration 925975-LINECONFIG;
};

object underground_line {
	phases C;
	from node911157911160;
	name 911159;
	to node824796911159;
	length 258;
	configuration 925975-LINECONFIG;
};

object underground_line {
	phases C;
	from node824796911159;
	name 824796;
	to node949119824796;
	length 151;
	configuration 925975-LINECONFIG;
};

object underground_line {
	phases C;
	from node949119824796;
	name 949119;
	to node12900x1-Ax1949119;
	length 659;
	configuration 925975-LINECONFIG;
};

object underground_line {
	phases C;
	from node930243824788;
	name 930244;
	to node824792930244;
	length 20;
	configuration 925975-LINECONFIG;
};

object underground_line {
	phases C;
	from node824792930244;
	name 824792;
	to node945215824792;
	length 248;
	configuration 925975-LINECONFIG;
};

object underground_line {
	phases C;
	from node945215824792;
	name 945215;
	to node1808-0045945215;
	length 465;
	configuration 925975-LINECONFIG;
};

object underground_line {
	phases C;
	from node824769930246;
	name 930245;
	to node824767930245;
	length 108;
	configuration 925975-LINECONFIG;
};

object overhead_line {
	phases CN;
	from node824767930245;
	name 824767;
	to node824765824767;
	length 365;
	configuration 825694-LINECONFIG;
};

object overhead_line {
	phases C;
	from node824765824767;
	name 824765;
	to node1808-29-026824765;
	length 246;
	configuration 825694-LINECONFIG;
};

object overhead_line {
	phases CN;
	from node824767930245;
	name 824785;
	to node824786824785;
	length 245;
	configuration 825694-LINECONFIG;
};

object overhead_line {
	phases C;
	from node824786824785;
	name 824786;
	to node1808-29-029824786;
	length 185;
	configuration 825694-LINECONFIG;
};

object underground_line {
	phases C;
	from node914744825648;
	name 914745;
	to node914746914745;
	length 40;
	configuration 925975-LINECONFIG;
};

object underground_line {
	phases C;
	from node914746914745;
	name 914746;
	to nodeT4140914746;
	length 544;
	configuration 925975-LINECONFIG;
};

object underground_line {
	phases C;
	from node825648825647;
	name 825759;
	to node1808-0080825759;
	length 42;
	configuration 925975-LINECONFIG;
};

object underground_line {
	phases C;
	from node825647825646;
	name 825762;
	to nodeFCMA4-F021x1825762;
	length 91;
	configuration 925975-LINECONFIG;
};

object fuse {
	phases C;
	from nodeFCMA4-F021x1825762;
	name FCMA4-F021x1;
	current_limit 9999.0 A;
	to node825764FCMA4-F021x1;
};

object overhead_line {
	phases CN;
	from node825764FCMA4-F021x1;
	name 825764;
	to node825765825764;
	length 227;
	configuration 825694-LINECONFIG;
};

object overhead_line {
	phases C;
	from node825765825764;
	name 825765;
	to node1808-32-026825765;
	length 412;
	configuration 825694-LINECONFIG;
};

object underground_line {
	phases C;
	from node825636825635;
	name 825767;
	to node1808-0076825767;
	length 22;
	configuration 925975-LINECONFIG;
};

object underground_line {
	phases C;
	from node825635825634;
	name 825769;
	to node1808-0074825769;
	length 21;
	configuration 925975-LINECONFIG;
};

object underground_line {
	phases C;
	from node825634825633;
	name 825771;
	to node1808-0072825771;
	length 22;
	configuration 925975-LINECONFIG;
};

object underground_line {
	phases C;
	from node825633825632;
	name 825773;
	to node1808-0070825773;
	length 22;
	configuration 925975-LINECONFIG;
};

object underground_line {
	phases C;
	from node825632825631;
	name 825775;
	to node1808-0068825775;
	length 27;
	configuration 925975-LINECONFIG;
};

object overhead_line {
	phases CN;
	from node825631825630;
	name 825777;
	to node825778825777;
	length 37;
	configuration 825694-LINECONFIG;
};

object overhead_line {
	phases C;
	from node825778825777;
	name 825778;
	to nodeF25084x1825778;
	length 55;
	configuration 825694-LINECONFIG;
};

object fuse {
	phases C;
	from nodeF25084x1825778;
	name F25084x1;
	current_limit 9999.0 A;
	to node825779F25084x1;
};

object overhead_line {
	phases CN;
	from node825779F25084x1;
	name 825779;
	to node825780825779;
	length 303;
	configuration 825694-LINECONFIG;
};

object overhead_line {
	phases CN;
	from node825780825779;
	name 825780;
	to node825783825780;
	length 113;
	configuration 825694-LINECONFIG;
};

object overhead_line {
	phases C;
	from node825783825780;
	name 825783;
	to node1808-30-007825783;
	length 297;
	configuration 825694-LINECONFIG;
};

object overhead_line {
	phases CN;
	from node825783825780;
	name 825787;
	to node825788825787;
	length 563;
	configuration 825694-LINECONFIG;
};

object overhead_line {
	phases CN;
	from node825788825787;
	name 825788;
	to node825789825788;
	length 93;
	configuration 825694-LINECONFIG;
};

object overhead_line {
	phases CN;
	from node825789825788;
	name 825789;
	to node825791825789;
	length 215;
	configuration 825694-LINECONFIG;
};

object overhead_line {
	phases CN;
	from node825791825789;
	name 825791;
	to node825792825791;
	length 268;
	configuration 825694-LINECONFIG;
};

object overhead_line {
	phases C;
	from node825792825791;
	name 825792;
	to node1808-30-013825792;
	length 251;
	configuration 825694-LINECONFIG;
};

object overhead_line {
	phases ACBN;
	from node824848824847;
	name 957807;
	to node824892957807;
	length 1168;
	configuration 824894-LINECONFIG;
};

object overhead_line {
	phases ACBN;
	from node824892957807;
	name 824892;
	to node824894824892;
	length 1168;
	configuration 824894-LINECONFIG;
};

object line_configuration {
	name 824894-LINECONFIG;
	spacing 824894-LINESPACING;
	conductor_N 824894_conductor_N;
	conductor_A 824894_conductor_C;
	conductor_C 824894_conductor_C;
	conductor_B 824894_conductor_C;
};

object line_spacing {
	distance_AN 4.437842;
	name 824894-LINESPACING;
	distance_CN 4.437842;
	distance_BC 3.961621;
	distance_AB 3.961621;
	distance_AC 7.333333;
	distance_BN 4.000000;
};

object overhead_line_conductor {
	diameter 0.721;
	resistance 0.592;
	name 824894_conductor_C;
	geometric_mean_radius 0.00814;
};

object overhead_line_conductor {
	diameter 0.721;
	resistance 1.12;
	name 824894_conductor_N;
	geometric_mean_radius 0.00446;
};

object overhead_line {
	phases ACB;
	from node824894824892;
	name 824894;
	to node824899824894;
	length 421;
	configuration 824894-LINECONFIG;
};

object underground_line {
	phases ACB;
	from node824899824894;
	name 824899;
	to node824900824899;
	length 1388;
	configuration 824901-LINECONFIG;
};

object underground_line {
	phases ACB;
	from node824900824899;
	name 824900;
	to node824901824900;
	length 1262;
	configuration 824901-LINECONFIG;
};

object line_configuration {
	name 824901-LINECONFIG;
	spacing 923991-LINESPACING;
	conductor_A 825244-LINECONFIGunderground_line_conductor62003;
	conductor_C 825244-LINECONFIGunderground_line_conductor62003;
	conductor_B 825244-LINECONFIGunderground_line_conductor62003;
};

object underground_line {
	phases ACB;
	from node824901824900;
	name 824901;
	to nodeREG14824901;
	length 1053;
	configuration 824901-LINECONFIG;
};

object regulator_configuration {
	Control LINE_DROP_COMP;
	raise_taps 16.0;
	PT_phase A;
	name REG14-CONFIG;
	band_center 117.99996;
	current_transducer_ratio 75;
	power_transducer_ratio 60.0;
	compensator_x_setting_A 6.399996;
	time_delay 30.0;
	connect_type WYE_WYE;
	regulation 0.1;
	CT_phase A;
	band_width 2.000004;
	tap_pos_A 1;
	control_level INDIVIDUAL;
	compensator_r_setting_A 19.40004;
	Type A;
	lower_taps 16.0;
};

object regulator {
	phases A;
	from nodeREG14824901;
	name REG14;
	to node825184REG14;
	configuration REG14-CONFIG;
};

object underground_line {
	phases A;
	from node825184REG14;
	name 825184;
	to nodeR7233x1825184;
	length 129;
	configuration 825215-LINECONFIG;
};

object fuse {
	phases A;
	from nodeR7233x1825184;
	name R7233x1;
	current_limit 9999.0 A;
	to node825185R7233x1;
};

object underground_line {
	phases A;
	from node825185R7233x1;
	name 825185;
	to node825186825185;
	length 196;
	configuration 825215-LINECONFIG;
};

object overhead_line {
	phases AN;
	from node825186825185;
	name 825186;
	to node825187825186;
	length 309;
	configuration 825240-LINECONFIG;
};

object overhead_line {
	phases AN;
	from node825187825186;
	name 825187;
	to node825189825187;
	length 673;
	configuration 825240-LINECONFIG;
};

object overhead_line {
	phases AN;
	from node825189825187;
	name 825189;
	to node937615825189;
	length 1240;
	configuration 825240-LINECONFIG;
};

object overhead_line {
	phases AN;
	from node937615825189;
	name 937615;
	to node825206937615;
	length 447;
	configuration 825240-LINECONFIG;
};

object overhead_line {
	phases A;
	from node825206937615;
	name 825206;
	to node825208825206;
	length 280;
	configuration 825240-LINECONFIG;
};

object underground_line {
	phases A;
	from node825208825206;
	name 825208;
	to node825209825208;
	length 155;
	configuration 955227-LINECONFIG;
};

object underground_line {
	phases A;
	from node825209825208;
	name 825209;
	to node825210825209;
	length 1145;
	configuration 955227-LINECONFIG;
};

object underground_line {
	phases A;
	from node825210825209;
	name 825210;
	to node1707-0181825210;
	length 182;
	configuration 955227-LINECONFIG;
};

object underground_line {
	phases A;
	from node825210825209;
	name 825212;
	to node825215825212;
	length 1025;
	configuration 955227-LINECONFIG;
};

object line_configuration {
	conductor_A 825688-LINECONFIGunderground_line_conductor32005;
	spacing 825117-LINESPACING;
	name 825215-LINECONFIG;
};

object underground_line {
	phases A;
	from node825215825212;
	name 825215;
	to node825216825215;
	length 1779;
	configuration 825215-LINECONFIG;
};

object overhead_line {
	phases AN;
	from node825216825215;
	name 825216;
	to node825217825216;
	length 664;
	configuration 825240-LINECONFIG;
};

object overhead_line {
	phases AN;
	from node825217825216;
	name 825217;
	to node825218825217;
	length 276;
	configuration 825240-LINECONFIG;
};

object overhead_line {
	phases AN;
	from node825218825217;
	name 825218;
	to node825219825218;
	length 229;
	configuration 825240-LINECONFIG;
};

object overhead_line {
	phases AN;
	from node825219825218;
	name 825219;
	to node923898825219;
	length 944;
	configuration 825240-LINECONFIG;
};

object overhead_line {
	phases A;
	from node923898825219;
	name 923898;
	to nodeFCMA4-F027x1923898;
	length 594;
	configuration 825240-LINECONFIG;
};

object fuse {
	phases A;
	from nodeFCMA4-F027x1923898;
	name FCMA4-F027x1;
	current_limit 9999.0 A;
	to node825220FCMA4-F027x1;
};

object underground_line {
	phases A;
	from node825220FCMA4-F027x1;
	name 825220;
	to node825221825220;
	length 921;
	configuration 955227-LINECONFIG;
};

object underground_line {
	phases A;
	from node825221825220;
	name 825221;
	to node825222825221;
	length 966;
	configuration 955227-LINECONFIG;
};

object underground_line {
	phases A;
	from node825222825221;
	name 825222;
	to node825223825222;
	length 1176;
	configuration 955227-LINECONFIG;
};

object underground_line {
	phases A;
	from node825223825222;
	name 825223;
	to node1707-0074825223;
	length 472;
	configuration 955227-LINECONFIG;
};

object underground_line {
	phases A;
	from node825221825220;
	name 825225;
	to node1707-0223825225;
	length 491;
	configuration 955227-LINECONFIG;
};

object underground_line {
	phases A;
	from node825221825220;
	name 955235;
	to nodeT12388955235;
	length 20;
	configuration 955227-LINECONFIG;
};

object overhead_line {
	phases AN;
	from node825218825217;
	name 825227;
	to node825229825227;
	length 443;
	configuration 825240-LINECONFIG;
};

object overhead_line {
	phases AN;
	from node825229825227;
	name 825229;
	to node825232825229;
	length 429;
	configuration 825240-LINECONFIG;
};

object overhead_line {
	phases AN;
	from node825232825229;
	name 825232;
	to node825233825232;
	length 476;
	configuration 825240-LINECONFIG;
};

object overhead_line {
	phases AN;
	from node825233825232;
	name 825233;
	to node825234825233;
	length 695;
	configuration 825240-LINECONFIG;
};

object overhead_line {
	phases AN;
	from node825234825233;
	name 825234;
	to node825236825234;
	length 365;
	configuration 825240-LINECONFIG;
};

object overhead_line {
	phases AN;
	from node825236825234;
	name 825236;
	to node925840825236;
	length 365;
	configuration 825240-LINECONFIG;
};

object overhead_line {
	phases AN;
	from node925840825236;
	name 925840;
	to node825237925840;
	length 350;
	configuration 825240-LINECONFIG;
};

object overhead_line {
	phases AN;
	from node825237925840;
	name 825237;
	to node925845825237;
	length 345;
	configuration 825240-LINECONFIG;
};

object overhead_line {
	phases AN;
	from node925845825237;
	name 925845;
	to node825265925845;
	length 345;
	configuration 825240-LINECONFIG;
};

object underground_line {
	phases A;
	from node825265925845;
	name 825265;
	to nodeFCMA4-F028x1825265;
	length 25;
	configuration 825244-LINECONFIG;
};

object fuse {
	phases A;
	from nodeFCMA4-F028x1825265;
	name FCMA4-F028x1;
	current_limit 9999.0 A;
	to node825266FCMA4-F028x1;
};

object underground_line {
	phases A;
	from node825266FCMA4-F028x1;
	name 825266;
	to node1707-0038825266;
	length 546;
	configuration 825244-LINECONFIG;
};

object overhead_line {
	phases AN;
	from node825265925845;
	name 914183;
	to node925841914183;
	length 350;
	configuration 825240-LINECONFIG;
};

object overhead_line {
	phases AN;
	from node925841914183;
	name 925841;
	to node925842925841;
	length 355;
	configuration 825240-LINECONFIG;
};

object overhead_line {
	phases AN;
	from node925842925841;
	name 925842;
	to node925843925842;
	length 400;
	configuration 825240-LINECONFIG;
};

object overhead_line {
	phases AN;
	from node925843925842;
	name 925843;
	to node925844925843;
	length 400;
	configuration 825240-LINECONFIG;
};

object overhead_line {
	phases AN;
	from node925844925843;
	name 925844;
	to node825239925844;
	length 350;
	configuration 825240-LINECONFIG;
};

object overhead_line {
	phases AN;
	from node825239925844;
	name 825239;
	to node825240825239;
	length 475;
	configuration 825240-LINECONFIG;
};

object line_configuration {
	conductor_A 825694_conductor_N;
	conductor_N 825694_conductor_N;
	spacing 913826-LINESPACING;
	name 825240-LINECONFIG;
};

object overhead_line {
	phases AN;
	from node825240825239;
	name 825240;
	to node825241825240;
	length 295;
	configuration 825240-LINECONFIG;
};

object underground_line {
	phases A;
	from node825241825240;
	name 825241;
	to nodeF18633x1825241;
	length 55;
	configuration 825244-LINECONFIG;
};

object fuse {
	phases A;
	from nodeF18633x1825241;
	name F18633x1;
	current_limit 9999.0 A;
	to node825242F18633x1;
};

object underground_line {
	phases A;
	from node825242F18633x1;
	name 825242;
	to node919704825242;
	length 2232;
	configuration 825244-LINECONFIG;
};

object underground_line {
	phases A;
	from node919704825242;
	name 919704;
	to node825244919704;
	length 1116;
	configuration 825244-LINECONFIG;
};

object line_configuration {
	conductor_A 825244-LINECONFIGunderground_line_conductor62003;
	spacing 825117-LINESPACING;
	name 825244-LINECONFIG;
};

object underground_line_conductor {
	conductor_gmr 0.01666;
	insulation_relative_permitivitty 2.4;
	conductor_resistance 0.5544;
	shield_resistance 0.000000;
	neutral_gmr 0.0317574;
	outer_diameter 1.138000;
	neutral_strands 19;
	neutral_resistance 1.61568;
	neutral_diameter 0.127999;
	conductor_diameter 0.528000;
	shield_gmr 0.000000;
	name 825244-LINECONFIGunderground_line_conductor62003;
};

object underground_line {
	phases A;
	from node825244919704;
	name 825244;
	to nodeT7736825244;
	length 910;
	configuration 825244-LINECONFIG;
};

object underground_line {
	phases A;
	from node919704825242;
	name 919705;
	to nodeT4265919705;
	length 100;
	configuration 955227-LINECONFIG;
};

object overhead_line {
	phases AN;
	from node825241825240;
	name 825246;
	to node825248825246;
	length 572;
	configuration 913826-LINECONFIG;
};

object overhead_line {
	phases AN;
	from node825248825246;
	name 825248;
	to node825250825248;
	length 634;
	configuration 913826-LINECONFIG;
};

object overhead_line {
	phases AN;
	from node825250825248;
	name 825250;
	to node825251825250;
	length 985;
	configuration 913826-LINECONFIG;
};

object overhead_line {
	phases AN;
	from node825251825250;
	name 825251;
	to node910117825251;
	length 410;
	configuration 913826-LINECONFIG;
};

object overhead_line {
	phases AN;
	from node910117825251;
	name 910117;
	to node825252910117;
	length 997;
	configuration 913826-LINECONFIG;
};

object overhead_line {
	phases A;
	from node825252910117;
	name 825252;
	to node1707-13-016825252;
	length 358;
	configuration 913826-LINECONFIG;
};

object overhead_line {
	phases AN;
	from node825252910117;
	name 825254;
	to node825255825254;
	length 908;
	configuration 913826-LINECONFIG;
};

object underground_line {
	phases A;
...